INIT MASTER(S)
NASTRAN SYSTEM(319)=1
ID test,FEMAP
SOL SEMODES
CEND
  TITLE = vibes
  ECHO = NONE
  DISPLACEMENT(PLOT) = ALL
  SPCFORCE(PLOT) = ALL
  ESE(PLOT) = ALL
  METHOD = 1
  SPC = 1
BEGIN BULK
$ ***************************************************************************
$   Written by : Femap
$   Version    : 2021.2.1
$   Translator : MSC Nastran
$   From Model : C:\Users\rwrig\Desktop\files\rocket-flutter-speed-analysis\model\test-case-3-learning\v3\test-square-hand-calc-approx.modfem
$   Date       : Tue Mar 25 02:35:36 2025
$   Output To  : C:\Users\rwrig\Desktop\files\rocket-flutter-speed-analysis\model\test-case-3-learning\v3\
$ ***************************************************************************
$
PARAM,PRGPST,NO
PARAM,POST,-1
PARAM,OGEOM,NO
PARAM,AUTOSPC,YES
PARAM,GRDPNT,0
EIGRL          1                      10       0                    MASS
CORD2C         1       0      0.      0.      0.      0.      0.      1.+FEMAPC1
+FEMAPC1      1.      0.      1.        
CORD2S         2       0      0.      0.      0.      0.      0.      1.+FEMAPC2
+FEMAPC2      1.      0.      1.        
$ Femap Constraint Set 1 : constr
SPC1           1  123456      13
SPC1           1  123456      14
SPC1           1  123456      15
SPC1           1  123456      16
SPC1           1  123456      17
SPC1           1  123456      18
SPC1           1  123456      19
$ Femap Property 1 : PLATE Property
PSHELL         1       1    .002       1               1              0.
$ Femap Material 1 : magnesium
MAT1           1  4.5+10  1.7+10           1800.      0.    293.    .001
GRID           1       0      0.      0.    .165       0
GRID           2       0   .0275      0.    .165       0
GRID           3       0    .055      0.    .165       0
GRID           4       0   .0825      0.    .165       0
GRID           5       0     .11      0.    .165       0
GRID           6       0   .1375      0.    .165       0
GRID           7       0    .165      0.    .165       0
GRID           8       0    .165      0.   .1375       0
GRID           9       0    .165      0.     .11       0
GRID          10       0    .165      0.   .0825       0
GRID          11       0    .165      0.    .055       0
GRID          12       0    .165      0.   .0275       0
GRID          13       0    .165      0.      0.       0
GRID          14       0   .1375      0.      0.       0
GRID          15       0     .11      0.      0.       0
GRID          16       0   .0825      0.      0.       0
GRID          17       0    .055      0.      0.       0
GRID          18       0   .0275      0.      0.       0
GRID          19       0      0.      0.      0.       0
GRID          20       0      0.      0.   .0275       0
$ ... 29 like lines cut
CQUAD4         1       1       1       2      25      24                
CQUAD4         2       1       2       3      26      25                
CQUAD4         3       1       3       4      27      26                
CQUAD4         4       1       4       5      28      27                
CQUAD4         5       1       5       6      29      28                
CQUAD4         6       1       6       7       8      29                
CQUAD4         7       1      24      25      30      23                
CQUAD4         8       1      25      26      31      30                
CQUAD4         9       1      26      27      32      31                
CQUAD4        10       1      27      28      33      32                
CQUAD4        11       1      28      29      34      33                
CQUAD4        12       1      29       8       9      34                
CQUAD4        13       1      23      30      35      22                
CQUAD4        14       1      30      31      36      35                
CQUAD4        15       1      31      32      37      36                
CQUAD4        16       1      32      33      38      37                
CQUAD4        17       1      33      34      39      38                
CQUAD4        18       1      34       9      10      39                
CQUAD4        19       1      22      35      40      21                
CQUAD4        20       1      35      36      41      40                
$ ... 16 like lines cut
ENDDATA
