INIT MASTER(S)
NASTRAN SYSTEM(319)=1
ID FEMAP,FEMAP
SOL SESTATIC
CEND
  TITLE = x
  ECHO = NONE
  DISPLACEMENT(PLOT) = ALL
  SPCFORCE(PLOT) = ALL
  OLOAD(PLOT) = ALL
  FORCE(PLOT,CORNER) = ALL
  STRESS(PLOT,CORNER) = ALL
BEGIN BULK
$ ***************************************************************************
$   Written by : Femap
$   Version    : 2021.2.1
$   Translator : MSC Nastran
$   From Model : 
$   Date       : Mon Jun 23 21:42:48 2025
$   Output To  : C:\Users\rwrig\AppData\Local\Temp\
$ ***************************************************************************
$
PARAM,PRGPST,NO
PARAM,POST,-1
PARAM,OGEOM,NO
PARAM,AUTOSPC,YES
PARAM,K6ROT,100.
PARAM,GRDPNT,0
CORD2C*                1               0              0.              0.*FEMAPC1
*FEMAPC1              0.              0.              0.              1.*FEMAPC1
*FEMAPC1              1.              0.              1.                *FEMAPC1
*FEMAPC1
CORD2S*                2               0              0.              0.*FEMAPC2
*FEMAPC2              0.              0.              0.              1.*FEMAPC2
*FEMAPC2              1.              0.              1.                *FEMAPC2
*FEMAPC2
$ Femap Property 1 : Mg
PSHELL         1       1    .002       1               1              0.
$ Femap Material 1 : Mg
MAT1           1  2.48+8  1.7+10           1780.      0.      0.        
GRID*                  1               0             .08              0.
*                   .176               0
GRID*                  2               0.099428571428571              0.
*                   .176               0
GRID*                  3               0.118857142857143              0.
*                   .176               0
GRID*                  4               0.138285714285714              0.
*                   .176               0
GRID*                  5               0.157714285714286              0.
*                   .176               0
GRID*                  6               0.177142857142857              0.
*                   .176               0
GRID*                  7               0.196571428571429              0.
*                   .176               0
GRID*                  8               0            .216              0.
*                   .176               0
GRID*                  9               0            .216              0.
*       .146666666666667               0
GRID*                 10               0            .216              0.
*       .117333333333333               0
GRID*                 11               0            .216              0.
*                   .088               0
GRID*                 12               0            .216              0.
*       .058666666666667               0
GRID*                 13               0            .216              0.
*       .029333333333333               0
GRID*                 14               0            .216              0.
*                     0.               0
GRID*                 15               0.185142857142857              0.
*                     0.               0
GRID*                 16               0.154285714285714              0.
*                     0.               0
GRID*                 17               0.123428571428571              0.
*                     0.               0
GRID*                 18               0.092571428571429              0.
*                     0.               0
GRID*                 19               0.061714285714286              0.
*                     0.               0
GRID*                 20               0.030857142857143              0.
*                     0.               0
$ ... 72 like lines cut
CQUAD4         1       1       1       2      27      26                
CQUAD4         2       1       2       3      28      27                
CQUAD4         3       1       3       4      29      28                
CQUAD4         4       1       4       5      30      29                
CQUAD4         5       1       5       6      31      30                
CQUAD4         6       1       6       7      32      31                
CQUAD4         7       1       7       8       9      32                
CQUAD4         8       1      26      27      33      25                
CQUAD4         9       1      27      28      34      33                
CQUAD4        10       1      28      29      35      34                
CQUAD4        11       1      29      30      36      35                
CQUAD4        12       1      30      31      37      36                
CQUAD4        13       1      31      32      38      37                
CQUAD4        14       1      32       9      10      38                
CQUAD4        15       1      25      33      39      24                
CQUAD4        16       1      33      34      40      39                
CQUAD4        17       1      34      35      41      40                
CQUAD4        18       1      35      36      42      41                
CQUAD4        19       1      36      37      43      42                
CQUAD4        20       1      37      38      44      43                
$ ... 22 like lines cut
ENDDATA
