INIT MASTER(S)
NASTRAN OP2NEW=0,SYSTEM(319)=1
ID Test,FEMAP
SOL SEFLUTTR
TIME 30
CEND
  TITLE = MSC Nastran Flutter Analysis Set
  ECHO = NONE
  DISPLACEMENT(PLOT) = ALL
  SPCFORCE(PLOT) = ALL
  STRESS(PLOT,CORNER) = ALL
  AEROF = All
  SPC = 1
  METHOD = 1
BEGIN BULK
$ ***************************************************************************
$   Written by : Femap
$   Version    : 2412.0
$   Translator : MSC Nastran
$   From Model : C:\Users\lord flashheart\Desktop\Test case 3 V1.modfem
$   Date       : Sat Mar 22 15:48:59 2025
$   Output To  : C:\Users\lord flashheart\Desktop\
$ ***************************************************************************
$
PARAM,PRGPST,NO
PARAM,POST,-1
PARAM,OGEOM,NO
PARAM,AUTOSPC,YES
PARAM,GRDPNT,0
CORD2C         1       0      0.      0.      0.      0.      0.      1.+FEMAPC1
+FEMAPC1      1.      0.      1.        
CORD2S         2       0      0.      0.      0.      0.      0.      1.+FEMAPC2
+FEMAPC2      1.      0.      1.        
AERO           0      0.      0.      0.       0       0                
EIGRL          1            400.      10       0                    MASS
PARAM,LMODES,20
PARAM,HFREQ,400.
$ Femap Constraint Set 1 : fixed
SPC1           1  123456       1
SPC1           1  123456       2
SPC1           1  123456       3
SPC1           1  123456       4
SPC1           1  123456       5
SPC1           1  123456       6
SPC1           1  123456       7
SPC1           1  123456       8
$ Femap Property 1 : 1
PSHELL         1       1    .002                                      0.
$ Femap Material 1 : ISOTROPIC Material
MAT1           1  4.5+10  1.7+10     .35   1800.      0.      0.    .001+       
+          2.5+8   1.6+8 9.999+9
GRID           1       0      0.      0.      0.       0
GRID           2       0.0289286      0.      0.       0
GRID           3       0.0578571      0.      0.       0
GRID           4       0.0867857      0.      0.       0
GRID           5       0.1157143      0.      0.       0
GRID           6       0.1446429      0.      0.       0
GRID           7       0.1735714      0.      0.       0
GRID           8       0   .2025      0.      0.       0
GRID           9       0   .2025      0.   .0275       0
GRID          10       0   .2025      0.    .055       0
GRID          11       0   .2025      0.   .0825       0
GRID          12       0   .2025      0.     .11       0
GRID          13       0   .2025      0.   .1375       0
GRID          14       0   .2025      0.    .165       0
GRID          15       0.1842857      0.    .165       0
GRID          16       0.1660714      0.    .165       0
GRID          17       0.1478571      0.    .165       0
GRID          18       0.1296429      0.    .165       0
GRID          19       0.1114286      0.    .165       0
GRID          20       0.0932143      0.    .165       0
$ ... 36 like lines cut
CQUAD4         1       1       1       2      27      26                
CQUAD4         2       1       2       3      28      27                
CQUAD4         3       1       3       4      29      28                
CQUAD4         4       1       4       5      30      29                
CQUAD4         5       1       5       6      31      30                
CQUAD4         6       1       6       7      32      31                
CQUAD4         7       1       7       8       9      32                
CQUAD4         8       1      26      27      33      25                
CQUAD4         9       1      27      28      34      33                
CQUAD4        10       1      28      29      35      34                
CQUAD4        11       1      29      30      36      35                
CQUAD4        12       1      30      31      37      36                
CQUAD4        13       1      31      32      38      37                
CQUAD4        14       1      32       9      10      38                
CQUAD4        15       1      25      33      39      24                
CQUAD4        16       1      33      34      40      39                
CQUAD4        17       1      34      35      41      40                
CQUAD4        18       1      35      36      42      41                
CQUAD4        19       1      36      37      43      42                
CQUAD4        20       1      37      38      44      43                
$ ... 22 like lines cut
$ Femap Aero Property 1 : Aero Property
PAERO1         1                                                        
$ Femap Aero Panel 1 : Aero Panel
CAERO1         1       1       0       2       2                       1+       
+             0.      0.      0.   .2025    .075      0.    .165   .1275
$ Femap Aero Spline 1 : Aero Spline
SPLINE1        1       1       1       4       1      0.     IPS    BOTH
ENDDATA
