INIT MASTER(S)
NASTRAN SYSTEM(319)=1
ID A2,FEMAP
SOL SESTATIC
CEND
  TITLE = export
  ECHO = NONE
  DISPLACEMENT(PLOT) = ALL
  SPCFORCE(PLOT) = ALL
  OLOAD(PLOT) = ALL
  FORCE(PLOT,CORNER) = ALL
  STRESS(PLOT,CORNER) = ALL
BEGIN BULK
$ ***************************************************************************
$   Written by : Femap
$   Version    : 2021.2.1
$   Translator : MSC Nastran
$   From Model : C:\Users\rwrig\Desktop\A2-fem.modfem
$   Date       : Sat Aug  2 23:04:32 2025
$   Output To  : C:\Users\rwrig\Desktop\
$ ***************************************************************************
$
PARAM,PRGPST,NO
PARAM,POST,-1
PARAM,OGEOM,NO
PARAM,AUTOSPC,YES
PARAM,GRDPNT,0
CORD2C         1       0      0.      0.      0.      0.      0.      1.+FEMAPC1
+FEMAPC1      1.      0.      1.        
CORD2S         2       0      0.      0.      0.      0.      0.      1.+FEMAPC2
+FEMAPC2      1.      0.      1.        
$ Femap Property 1 : isotropic-al-6061
PSHELL         1       1      0.       1               1              0.
$ Femap Material 1 : Aluminum-6061-matweb
MAT1           1 6.89+10     26.     .33   2700.      0.      0.        
GRID           1       05.174386-6.56-15 .074803       0
GRID           2       05.184305-6.79-15.0803468       0
GRID           3       05.194224-6.79-15.0858907       0
GRID           4       05.204143-6.79-15.0914345       0
GRID           5       05.214062-6.79-15.0969783       0
GRID           6       05.223981-6.79-15.1025221       0
GRID           7       0  5.2339-6.79-15 .108066       0
GRID           8       05.243819-6.79-15.1136098       0
GRID           9       05.253738-6.79-15.1191536       0
GRID          10       05.263657-6.79-15.1246974       0
GRID          11       05.273576-6.79-15.1302413       0
GRID          12       05.283495-6.79-15.1357851       0
GRID          13       05.293414-6.79-15.1413289       0
GRID          14       05.303333-6.79-15.1468727       0
GRID          15       05.313252-6.79-15.1524166       0
GRID          16       05.323171-6.79-15.1579604       0
GRID          17       0 5.33309-6.79-15.1635042       0
GRID          18       05.343009-6.79-15 .169048       0
GRID          19       05.352928-6.79-15.1745919       0
GRID          20       05.362847-6.79-15.1801357       0
$ ... 973 like lines cut
CQUAD4         1       1      75     440     443     382                
CQUAD4         2       1     134    1134    1138    1112                
CQUAD4         3       1     226    1109    1113    1112                
CQUAD4         4       1     223     854    1123    1122                
CQUAD4         5       1     226    1124    1128    1122                
CQUAD4         6       1     222     885    1108    1107                
CQUAD4         7       1     225    1114    1118    1107                
CQUAD4         8       1     219     814     853     852                
CQUAD4         9       1     224     854     858     852                
CQUAD4        10       1     223     859     863     855                
CQUAD4        11       1      24     889     893     879                
CQUAD4        12       1      24     879     883     882                
CQUAD4        13       1     131     884     888     887                
CQUAD4        14       1     222     874     878     877                
CQUAD4        15       1     221     844     848     847                
CQUAD4        16       1     214     819     823     817                
CQUAD4        17       1     220     814     818     817                
CQUAD4        18       1     219     809     813     812                
CQUAD4        19       1     218     804     808     807                
CQUAD4        20       1     215    1135    1148    1132                
$ ... 899 like lines cut
ENDDATA
